<?xml version="1.0" encoding="UTF-8"?>

<!-- generated on 2024-03-21 11:38:31 by Eclipse SUMO netedit Version 1.19.0
-->

<routes xmlns:xsi="http://www.w3.org/2001/XMLSchema-instance" xsi:noNamespaceSchemaLocation="http://sumo.dlr.de/xsd/routes_file.xsd">
    <!-- Routes -->
<routes>
    <route id="r_0" edges="B8A8 A8A9 A9B9 B9C9 C9D9 D9E9 E9F9 F9G9 G9H9 H9I9 I9I8 I8J8 J8J7 J7J8 J8J7 J7J6 J6J5 J5J4 J4J3 J3J2 J2J1 J1J0 J0I0 I0J0 J0J1 J1I1 I1J1 J1I1 I1H1 H1G1 G1G2 G2G3 G3G4 G4G5 G5G6 G6G7 G7G8 G8H8 H8H7 H7G7 G7F7 F7E7 E7D7 D7C7 C7C8 C8C7 C7C6 C6C5 C5C4 C4C3 C3C2 C2B2 B2B1 B1B2 B2C2 C2D2 D2E2 E2F2 F2E2 E2E3 E3E4 E4F4 F4G4 G4H4 H4I4 I4H4 H4G4 G4G5 G5G6 G6H6 H6H5 H5G5 G5F5 F5E5 E5D5 D5D6 D6D5 D5E5 E5F5 F5G5 G5H5 H5I5 I5I4 I4I3 I3I2 I2I1 I1I0 I0H0 H0G0 G0F0 F0E0 E0D0 D0C0 C0D0 D0E0 E0F0 F0F1 F1F2 F2F3 F3F4 F4F5 F5F6 F6F7 F7F8 F8E8 E8D8 D8E8 E8E7 E7D7 D7E7 E7F7 F7G7 G7G6 G6F6 F6G6"/>


    <vehicle id="0" type="type1" route="r_0" depart="0" color="1,0,0"/>
    
    <vehicle id="1" type="type1" route="r_0" depart="60" color="0,1,0">
            <param key="chargeRequestWh" value="4000"/>
    </vehicle>
    <vehicle id="2" type="type1" route="r_0" depart="60" color="0,1,0">
            <param key="chargeRequestWh" value="8000"/>
    </vehicle>
    <vehicle id="3" type="type1" route="r_0" depart="120" color="0,1,0">
            <param key="chargeRequestWh" value="4000"/>
    </vehicle>
    <vehicle id="4" type="type1" route="r_0" depart="120" color="0,1,0">
            <param key="chargeRequestWh" value="8000"/>
    </vehicle>
    <vehicle id="5" type="type1" route="r_0" depart="120" color="0,1,0">
            <param key="chargeRequestWh" value="6000"/>
    </vehicle>
    <vehicle id="6" type="type1" route="r_0" depart="120" color="0,1,0">
            <param key="chargeRequestWh" value="5000"/>
    </vehicle>
    <vehicle id="7" type="type1" route="r_0" depart="180" color="0,1,0">
            <param key="chargeRequestWh" value="7000"/>
    </vehicle>
    <vehicle id="8" type="type1" route="r_0" depart="180" color="0,1,0">
            <param key="chargeRequestWh" value="3000"/>
    </vehicle>
    <vehicle id="9" type="type1" route="r_0" depart="180" color="0,1,0">
            <param key="chargeRequestWh" value="5000"/>
    </vehicle>
    <vehicle id="10" type="type1" route="r_0" depart="180" color="0,1,0">
            <param key="chargeRequestWh" value="2000"/>
    </vehicle>
    <vehicle id="11" type="type1" route="r_0" depart="240" color="0,1,0">
            <param key="chargeRequestWh" value="1500"/>
    </vehicle>

</routes>
