<?xml version="1.0" encoding="UTF-8"?>
<additional xmlns:xsi="http://www.w3.org/2001/XMLSchema-instance" xsi:noNamespaceSchemaLocation="http://sumo.dlr.de/xsd/additional_file.xsd">

 
    <vType id="soulEV65" minGap="2.50" maxSpeed="29.06" color="white" accel="1.0" decel="1.0" sigma="0.0" personCapacity="4" containerCapacity="4" loadingDuration="10" emissionClass="Energy/unknown">
        <param key="has.battery.device" value="true"/>
        <param key="airDragCoefficient" value="0.35"/>       <!-- https://www.evspecifications.com/en/model/e94fa0 -->
        <param key="constantPowerIntake" value="100"/>       <!-- observed summer levels -->
        <param key="frontSurfaceArea" value="2.6"/>          <!-- computed (ht-clearance) * width -->
        <param key="internalMomentOfInertia" value="0.01"/>  <!-- guesstimate -->
        <param key="device.battery.capacity" value="64000"/>
        <param key="maximumPower" value="150000"/>           <!-- website as above -->
        <param key="propulsionEfficiency" value=".98"/>      <!-- guesstimate value providing closest match to observed -->
        <param key="radialDragCoefficient" value="0.1"/>     <!-- as above -->
        <param key="recuperationEfficiency" value=".96"/>    <!-- as above -->
        <param key="rollDragCoefficient" value="0.01"/>      <!-- as above -->
        <param key="stoppingThreshold" value="0.1"/>         <!-- as above -->
        <param key="mass" value="1830"/>              <!-- 1682kg curb wt + average 2 passengers / bags -->
        <param key="chargeRequestWh" value="2000"/>          <!-- new (optional) parameter to set the size of the charge request by this vehicle type -->
    </vType>

    <poi id="d0" type="drone" color="0,0,255" layer="250" lane="A9A8_0" imgFile='drone.png' height="10" width="10" pos="5" >
		<param key="droneKMperh" value= "60.0"/>
		<param key="droneChargeWh" value= "30000.0"/>
		<param key="droneFlyingWh" value= "14400.0"/>
		<param key="droneFlyingMinutes" value= "23"/>
		<param key="droneChargeContingencyp" value= "0.05"/>
		<param key="droneChargeViablep" value= "0.3"/>
		<param key="WhEVChargeRate" value= "25000"/>
		<param key="WhDroneRechargeRate" value= "75000"/>
    </poi>
    <poi id="d91" type="drone" color="0,250,250"  layer="250" lane="E4E5_0" pos="6" />
    <poi id="d92" type="drone" color="250,250,0" layer="250" lane="C7C6_0" pos="7" />
    <poi id="d93" type="drone" color="250,250,250" layer="250" lane="D5D6_0" pos="8" />
    <!-- StoppingPlaces -->
    <!-- cs on diagonal -->
    <chargingStation id="cs_0" lane="A9A8_0" startPos="0.00" endPos="10.00" friendlyPos="true" power="75000" efficiency="1.0"/>
    <chargingStation id="cs_1" lane="B8B7_0" startPos="0.00" endPos="10.00" friendlyPos="true" power="75000" efficiency="1.0"/>
    <chargingStation id="cs_2" lane="C7C6_0" startPos="0.00" endPos="10.00" friendlyPos="true" power="75000" efficiency="1.0"/>
    <chargingStation id="cs_3" lane="D6D5_0" startPos="0.00" endPos="10.00" friendlyPos="true" power="75000" efficiency="1.0"/>
    <chargingStation id="cs_4" lane="E5E4_0" startPos="0.00" endPos="10.00" friendlyPos="true" power="75000" efficiency="1.0"/>
    <chargingStation id="cs_5" lane="F4F3_0" startPos="0.00" endPos="10.00" friendlyPos="true" power="75000" efficiency="1.0"/>
    <chargingStation id="cs_6" lane="G3G2_0" startPos="0.00" endPos="10.00" friendlyPos="true" power="75000" efficiency="1.0"/>
    <chargingStation id="cs_7" lane="H2H1_0" startPos="0.00" endPos="10.00" friendlyPos="true" power="75000" efficiency="1.0"/>
    <chargingStation id="cs_8" lane="I1I0_0" startPos="0.00" endPos="10.00" friendlyPos="true" power="75000" efficiency="1.0"/>
    <chargingStation id="cs_10" lane="A8A9_0" startPos="0.00" endPos="10.00" friendlyPos="true" power="75000" efficiency="1.0"/>
    <chargingStation id="cs_11" lane="B7B8_0" startPos="0.00" endPos="10.00" friendlyPos="true" power="75000" efficiency="1.0"/>
    <chargingStation id="cs_12" lane="C6C7_0" startPos="0.00" endPos="10.00" friendlyPos="true" power="75000" efficiency="1.0"/>
    <chargingStation id="cs_13" lane="D5D6_0" startPos="0.00" endPos="10.00" friendlyPos="true" power="75000" efficiency="1.0"/>
    <chargingStation id="cs_14" lane="E4E5_0" startPos="0.00" endPos="10.00" friendlyPos="true" power="75000" efficiency="1.0"/>
    <chargingStation id="cs_15" lane="F3F4_0" startPos="0.00" endPos="10.00" friendlyPos="true" power="75000" efficiency="1.0"/>
    <chargingStation id="cs_16" lane="G2G3_0" startPos="0.00" endPos="10.00" friendlyPos="true" power="75000" efficiency="1.0"/>
    <chargingStation id="cs_17" lane="H1H2_0" startPos="0.00" endPos="10.00" friendlyPos="true" power="75000" efficiency="1.0"/>
    <chargingStation id="cs_18" lane="I0I1_0" startPos="0.00" endPos="10.00" friendlyPos="true" power="75000" efficiency="1.0"/>
    
    <!-- cs on square 
    <chargingStation id="cs_0" lane="C7C6_0" startPos="0" endPos="10"/>
    <chargingStation id="cs_1" lane="H7G7_0" startPos="0" endPos="10"/>
    <chargingStation id="cs_2" lane="H7I7_0" startPos="0" endPos="10"/>
    <chargingStation id="cs_3" lane="H2H3_0" startPos="0" endPos="10"/>
    <chargingStation id="cs_4" lane="H2H1_0" startPos="0" endPos="10"/>
    <chargingStation id="cs_5" lane="C2B2_0" startPos="0" endPos="10"/>
    <chargingStation id="cs_6" lane="C2D2_0" startPos="0" endPos="10"/>
    <chargingStation id="cs_7" lane="E5F5_0" startPos="500" endPos="510"/>
    <chargingStation id="cs_8" lane="C7C8_0" startPos="0" endPos="10"/>
    <chargingStation id="cs_9" lane="E4F4_0" startPos="500" endPos="510"/>
-->

</additional>    
