<?xml version="1.0" encoding="UTF-8"?>

<!-- generated on 2024-01-23 19:53:05.538269 by randomTrips.py v1_17_0+0084-cbfefb48472
<configuration>
    <net-file value="grid.net.xml"/>
    <additional-files value="grid.add.xml"/>
    <trip-attributes value="type=&quot;soulEV65&quot;"/>
    <intermediate value="20"/>
</configuration>
-->

<routes xmlns:xsi="http://www.w3.org/2001/XMLSchema-instance" xsi:noNamespaceSchemaLocation="http://sumo.dlr.de/xsd/routes_file.xsd">
    <trip id="0" depart="0.00" from="G3G2" to="G8G9" via="A3A4 C8C9 C3D3 H2H3 G6G7 I7H7 B1A1 E2E3 A3B3 C3C2 F0F1 A3A4 C1C2 G4F4 F4F3 C3C4 F8F7 H9G9 A1A0 H8I8"  type="soulEV65"/>
    <trip id="1" depart="1.00" from="D4E4" to="D0C0" via="B7A7 J4J3 D4D5 B1B2 B1C1 I3H3 F9G9 H8I8 H1I1 F3F4 J6J5 D8D7 F4G4 I1I0 G1G0 I4I3 F7E7 G9F9 A5B5 C4C3"  type="soulEV65"/>
    <trip id="2" depart="2.00" from="B0A0" to="H6G6" via="C4C5 B2B1 C8D8 G2H2 D7C7 D7D8 C2C3 C7D7 J2I2 G4F4 G0G1 B8B9 H1I1 B7C7 D8D7 J8J7 G3G2 F5F4 G7G6 I2I3"  type="soulEV65"/>
    <trip id="3" depart="3.00" from="C4C3" to="F1E1" via="A4A3 D2D3 C7D7 C2C3 J2J3 I5I6 D2D3 G4G5 E0D0 I9H9 E6D6 C7C8 C5D5 F5G5 C7C6 F7G7 I7I8 E0E1 C3C2 J9J8"  type="soulEV65"/>
    <trip id="4" depart="4.00" from="B1B0" to="J4I4" via="A5B5 B3A3 G2F2 H7H8 E2E3 A7B7 D8D9 J9I9 F2G2 J6I6 I4H4 A1B1 H1G1 G7F7 F3F4 C7D7 G3G2 B3B2 E3F3 E5E6"  type="soulEV65"/>
    <trip id="5" depart="5.00" from="I5I6" to="A7A6" via="C7C6 F0E0 B9B8 I8J8 I5H5 D1C1 G3G2 G0G1 B7A7 H4I4 F3G3 H6H5 F2G2 A0A1 D3D2 A2B2 J1I1 I5J5 I1I2 D1E1"  type="soulEV65"/>
    <trip id="6" depart="6.00" from="I5J5" to="F1G1" via="J3I3 B0C0 E8E7 A8A9 H4H5 H5G5 B4C4 E7E8 F4F5 C7C8 I5I4 E2F2 C2D2 F3G3 H1I1 C1D1 D2D1 J9I9 G4F4 E4D4"  type="soulEV65"/>
    <trip id="7" depart="7.00" from="B4A4" to="C0D0" via="C3D3 D4D5 F8E8 C4C3 C3C4 A8B8 G2G3 C4C3 I8H8 I4H4 A8B8 C5B5 G5H5 C3B3 B5A5 J1J2 F6F7 E7E6 H6I6 H8I8"  type="soulEV65"/>
    <trip id="8" depart="8.00" from="B1C1" to="A6A7" via="E3E4 E2F2 E6F6 H1I1 G6G5 J7J8 B2A2 E0F0 D4E4 I4I3 C6B6 C0D0 E5D5 E2E3 C8D8 C6B6 J0I0 E4E5 I4I3 F4G4"  type="soulEV65"/>
    <trip id="9" depart="9.00" from="J9J8" to="D0E0" via="I1J1 J5J6 J0J1 I3H3 B8A8 E8E7 C2D2 E0F0 A7A8 D8D7 J7J8 C7C8 H6I6 E5E6 E2F2 J4J3 J9I9 F5F4 H0I0 B7A7"  type="soulEV65"/>  <trip id="10" depart="10.00" from="J5J6" to="F7G7" via="F7F6 F4E4 H3H4 A7A6 F7G7 F0F1 I3I2 B7B6 J4J5 B0A0 C0B0 F8G8 G6G7 C4D4 B4A4 I6J6 C5D5 F8G8 G1G0 E2E1"  type="soulEV65"/>
    <trip id="11" depart="11.00" from="F2F1" to="B7B6" via="J1J2 C2B2 H0H1 C5B5 E0D0 G6F6 D1C1 D2D3 H3I3 A9A8 E5F5 J9J8 J9I9 A9A8 C2D2 C7C8 J1J0 I6H6 I5J5 D7D8"  type="soulEV65"/>
    <trip id="12" depart="12.00" from="I1J1" to="I8H8" via="G9F9 G0H0 J8I8 G4G5 A1A0 I0H0 D1C1 G5G4 J2J1 B5B4 B3B4 B2C2 F5E5 C8C7 F9G9 H0I0 C2B2 G2H2 C7C8 E8E9"  type="soulEV65"/>
    <trip id="13" depart="13.00" from="I2J2" to="I7I8" via="B1B2 E2F2 C8C9 A0B0 H5H6 G3F3 C7C6 H2I2 F4G4 E3D3 A1A2 A9B9 I6H6 I8H8 F4F3 I1J1 F7F8 B6B7 B4B5 D1E1"  type="soulEV65"/>
    <trip id="14" depart="14.00" from="H7I7" to="I4I5" via="I4H4 I7I8 C2C3 C6B6 B2B3 H6H5 I6I5 E1E0 G1G2 B7A7 J1I1 I4I5 J6J7 H9G9 I6H6 A3A2 H2H3 D4C4 J1J0 H8H7"  type="soulEV65"/>
    <trip id="15" depart="15.00" from="H9G9" to="F3F4" via="C7D7 H7G7 B2C2 I5H5 I4H4 C3D3 H9I9 E6D6 D1D2 H7I7 C4B4 A3A2 C1B1 D3E3 I4I5 J5J6 C8D8 G3G2 E0E1 J7J6"  type="soulEV65"/>
    <trip id="16" depart="16.00" from="J2J1" to="G6F6" via="B3B4 J6I6 B9B8 J5I5 C7C8 B3A3 E3F3 H1I1 D2D1 G0F0 F1F0 D8E8 F7E7 C6C7 G9H9 A0A1 J0J1 F3F4 H0I0 H3G3"  type="soulEV65"/>
    <trip id="17" depart="17.00" from="D7C7" to="C9D9" via="A8B8 G5G6 D3E3 D2D3 I3H3 H1G1 D1D0 D2C2 E1E2 E0F0 D0E0 B4B5 E2E3 J2J1 G6G7 I8H8 G1F1 D1D0 F4F5 A0A1"  type="soulEV65"/>
    <trip id="18" depart="18.00" from="E3E2" to="E7E8" via="F7F6 G4G5 E6E7 E4E5 C2D2 E7E6 I7J7 H7I7 B8B9 B0C0 F1F2 G2G3 D4D3 I0H0 H3I3 G6G5 C3D3 C1C2 A3A2 C5D5"  type="soulEV65"/>
    <trip id="19" depart="19.00" from="I3H3" to="H8H7" via="A9A8 E2D2 G2G1 C1B1 G8G7 E9D9 C5C6 G4H4 A0B0 H3I3 H5H6 B2C2 E3D3 B9A9 J4J3 F1G1 A6A7 C6B6 I3H3 E5F5"  type="soulEV65"/>
    <trip id="20" depart="20.00" from="G5H5" to="C9C8" via="J8I8 F8G8 J3J4 I6J6 G0H0 H0I0 F0F1 I1I2 F4F5 I7I6 H3G3 E7E6 C7B7 C6B6 G3F3 H5G5 F2E2 G2F2 C8C7 A9B9"  type="soulEV65"/>
    <trip id="21" depart="21.00" from="C8B8" to="H4G4" via="D3C3 F3G3 B5B6 C4C5 G8F8 G9G8 A8A7 E1E0 F4E4 E2D2 C2C1 E2E3 I8H8 F7G7 G8G7 I3J3 H5G5 D8D7 A1A0 D5E5"  type="soulEV65"/>
    <trip id="22" depart="22.00" from="I3I4" to="G3G4" via="J4I4 E2E1 H3H4 F4F3 F9G9 C3C4 C3C2 E3F3 A3B3 D4D5 G6H6 E1D1 B8A8 E6F6 B4B5 G1H1 A3A4 D9E9 F6E6 A3A4"  type="soulEV65"/>
    <trip id="23" depart="23.00" from="B5B4" to="C1C2" via="E6E5 A6A7 D8D7 C2D2 D3D4 H4I4 D8D7 H3I3 I1I2 C6C5 B0B1 A2A3 F3G3 J9J8 D5D6 G4G3 H6H7 G4G3 H4G4 J3J2"  type="soulEV65"/>
    <trip id="24" depart="24.00" from="A2B2" to="A9B9" via="B6C6 B4B5 G6F6 F6E6 C3C2 G8G9 H5H4 B8B7 G0F0 H3H4 B3B4 I0H0 J5J4 B2C2 A3A4 D2D1 G6G7 J4J3 E0D0 H0H1"  type="soulEV65"/>
    <trip id="25" depart="25.00" from="G7H7" to="E3F3" via="G2F2 B2B1 H5I5 I3I2 F9F8 B4A4 J7J8 H6H7 D5D4 E3E2 D7D8 F0G0 D4E4 I3H3 I0J0 B2B3 J4J5 G2H2 I1I0 G9G8"  type="soulEV65"/>
    <trip id="26" depart="26.00" from="H2H1" to="H8G8" via="J5J4 C8B8 H8I8 F3F4 E8E7 E3F3 H2G2 C7D7 I3I2 I1I2 B1A1 I6H6 C5C6 E6E7 G0G1 D8D7 A3B3 I3I2 B9C9 C2D2"  type="soulEV65"/>
    <trip id="27" depart="27.00" from="D4E4" to="E3D3" via="I5J5 G8H8 C8C9 A1A2 J3J2 B0C0 H1G1 E8E9 H4H3 G7H7 G3H3 E8F8 H7H8 B1B2 C3C4 G8F8 D1E1 F7F8 E7E6 F3E3"  type="soulEV65"/>
    <trip id="28" depart="28.00" from="H3H2" to="A2A1" via="D4C4 G9F9 C8B8 C6C5 B4A4 C1B1 B4A4 F3F2 H4I4 C0B0 C3B3 E8E7 H1H0 J6J7 F2F1 C9B9 B2B1 C1B1 C4B4 B9B8"  type="soulEV65"/>
    <trip id="29" depart="29.00" from="F3F2" to="B6B7" via="C8C7 J6J5 F5E5 G8G9 B4B5 I4J4 E8F8 I5I4 F6G6 E6F6 E4E3 C0B0 A6A7 J2J1 E7E8 I0I1 E0F0 A9A8 G2G1 A6B6"  type="soulEV65"/>
    <trip id="30" depart="30.00" from="F5G5" to="B7B6" via="D1D2 J8J9 B3C3 H5G5 G0F0 H7H6 C4B4 F2F1 E5E4 E4E5 I4H4 J8J7 D1D2 G1G2 G0G1 H2I2 J3J2 C2C1 C2C3 G5F5"  type="soulEV65"/>
    <trip id="31" depart="31.00" from="B8C8" to="A8B8" via="A9B9 A0A1 E5E4 F8F9 D0C0 C4C5 G9G8 G9F9 E5E6 G7G8 J0I0 H7G7 G2F2 G5G4 J1J2 E3D3 F4F3 G4F4 I8I9 I1H1"  type="soulEV65"/>
    <trip id="32" depart="32.00" from="B8A8" to="J9J8" via="D1E1 H3H4 F6F5 C9D9 B4B3 G7G8 G8G9 J2J3 F0E0 E9D9 B0A0 A5A4 E3E4 D3D2 C6C5 B1B0 J5I5 I1J1 F7E7 J3J4"  type="soulEV65"/>
    <trip id="33" depart="33.00" from="G6G5" to="F4G4" via="C8B8 A5A4 H4H3 E7D7 G4G3 I9H9 B9C9 F7G7 G2H2 E9D9 B1B0 D5D6 D4C4 G6F6 I3J3 D3E3 G8F8 C9D9 J3I3 H9H8"  type="soulEV65"/>
    <trip id="34" depart="34.00" from="E5E6" to="J6J5" via="D2D3 D3D2 J6I6 E1D1 F1F2 J8I8 G4H4 F4E4 E1F1 C0C1 D6E6 H4H3 G2F2 H4H5 C2B2 F4F5 J0J1 E4D4 G8G9 B4A4"  type="soulEV65"/>
    <trip id="35" depart="35.00" from="G0G1" to="F0G0" via="C5C4 B7B8 F4G4 F4G4 B1B2 J8J9 I8J8 E6E5 B3C3 I1I2 E9F9 H0H1 F1E1 C8C7 I1J1 J7I7 C5C6 F4G4 D8E8 I9J9"  type="soulEV65"/>
    <trip id="36" depart="36.00" from="I5J5" to="G8G9" via="I4I5 C8C9 H7H6 E2D2 J1J2 F0G0 I0I1 C9B9 D1C1 F8E8 J9J8 E8F8 B6B7 F3F4 D5D4 F4G4 F4E4 E5E6 D3C3 C0C1"  type="soulEV65"/>
    <trip id="37" depart="37.00" from="F6F7" to="E1E2" via="C4D4 H6G6 A5A6 H3H2 G9F9 H9H8 D8E8 G5G4 I0I1 J7J6 E9E8 A4B4 F0E0 F8F7 I5H5 I5I4 E4E3 F2F3 E5F5 H1H0"  type="soulEV65"/>
    <trip id="38" depart="38.00" from="G4G5" to="E3F3" via="B7A7 E7D7 J5J6 D4D5 G8F8 G4F4 I3I2 I3I2 I4H4 D8D7 D2D3 H0I0 H4H5 I5I4 A4A5 A8A9 G2G3 I9J9 J9J8 H3H2"  type="soulEV65"/>
    <trip id="39" depart="39.00" from="B2A2" to="E6E5" via="G2H2 I5I4 E4E5 G8F8 I8H8 A5B5 H7I7 D0D1 D7E7 B6B5 F3E3 F6E6 H7H8 B8B9 B0A0 I5H5 G1G2 C5C4 I8J8 B6A6"  type="soulEV65"/>
    <trip id="40" depart="40.00" from="C6C7" to="D0E0" via="C6C7 A1A2 H8H9 I7J7 G6G7 B7B6 E4E5 D5D4 F8E8 G3G2 E2F2 C6C5 I2J2 C1C2 D8E8 E8D8 C5B5 F6F7 F6G6 J8J9"  type="soulEV65"/>
    <trip id="41" depart="41.00" from="J7I7" to="I8H8" via="G4H4 C8C7 F6E6 G7G6 H3H2 A6A5 G0F0 E9E8 I8H8 C9D9 H8G8 G0F0 D5E5 G3F3 G1G2 G6G7 H1G1 G5F5 I2H2 G2G1"  type="soulEV65"/>
    <trip id="42" depart="42.00" from="G3H3" to="B3B4" via="D2C2 E4E3 F7F6 H2G2 B1B0 D0E0 H3H4 B9A9 B5A5 F3G3 J6I6 F3E3 I8J8 I1I0 C6D6 I0J0 E8D8 H8I8 H3H2 D4D5"  type="soulEV65"/>
    <trip id="43" depart="43.00" from="J5I5" to="I6I5" via="B5C5 J5J4 I4H4 H1H0 J7I7 J5J6 H8H9 D7C7 H7H6 A2A1 F3F4 E5E6 G6G5 G6G5 F7G7 I0J0 J2J1 B3A3 C4D4 A3A4"  type="soulEV65"/>
    <trip id="44" depart="44.00" from="F5G5" to="B7A7" via="I9H9 C3C4 A7B7 I0J0 I8I9 D1D0 E1E0 B5C5 J3I3 D1D2 E9D9 B1C1 I6I7 B5B4 E5E6 G6F6 H3G3 J3I3 E2E1 H3G3"  type="soulEV65"/>
    <trip id="45" depart="45.00" from="E2D2" to="G3G4" via="B2A2 E8F8 E1E0 J3J4 A4A3 D7D8 E4E5 J3J4 I3I4 B2A2 G7G6 F4F3 J7I7 D6D7 E0E1 C0D0 B4A4 I3H3 E5E6 G5G4"  type="soulEV65"/>
    <trip id="46" depart="46.00" from="F8G8" to="A3A4" via="A2B2 H7G7 C5C6 B4B5 F6E6 A8A9 H5G5 C2C1 C3B3 I5H5 D3E3 B6B7 I7J7 A0B0 I4H4 B6B5 B4C4 C6C5 B8C8 G5F5"  type="soulEV65"/>
    <trip id="47" depart="47.00" from="A2A1" to="A7A8" via="H7H6 C5B5 D3D2 B8C8 A6A7 H3G3 F2F3 H3H2 E7E8 H6H5 F1F0 B3A3 F0F1 J3I3 A5A6 H6H7 I4J4 F2E2 E5F5 J5J4"  type="soulEV65"/>
    <trip id="48" depart="48.00" from="E7F7" to="H5H4" via="E0F0 G7G6 E8F8 I8I9 A9A8 B0B1 G0F0 A8A7 C8C9 G2G3 F4F5 D3D4 J9I9 F3E3 E5E6 F9G9 B2A2 G8H8 I3I4 G4G3"  type="soulEV65"/>
    <trip id="49" depart="49.00" from="H1G1" to="F5G5" via="C3B3 E5E4 C4C3 D4E4 E5E6 E2D2 B1C1 E3D3 G5G6 D7E7 B6C6 J0I0 A8A9 I1I2 B1B2 B1C1 H2H3 H9H8 F5F4 F8E8"  type="soulEV65"/>
    <!--<trip id="50" depart="50.00" from="D3E3" to="J6J5" via="B4B3 D6C6 G5G6 H3I3 I4J4 H1G1 J5J6 F9F8 D5E5 F7F6 C2D2 G4H4 C3D3 B2C2 I2J2 D7D6 H4I4 F6G6 H8I8 I2J2"  type="soulEV65"/>
    <trip id="51" depart="51.00" from="I0H0" to="D4E4" via="G0H0 G3G4 A3A4 J1I1 I1I0 C7D7 B9B8 G8H8 D2C2 D4E4 A1A0 I5H5 F6E6 E0F0 B6A6 G2G3 A4A3 H3H2 C3B3 E2E3"  type="soulEV65"/>
    <trip id="52" depart="52.00" from="D7D8" to="A5B5" via="H1G1 H6G6 F6F5 B0C0 A6A7 B7B6 G1G0 G6G5 C8B8 G5G4 E8E7 E4E5 C8C7 H4G4 B3B2 E3E2 C9B9 G6H6 E8E9 G5H5"  type="soulEV65"/>
    <trip id="53" depart="53.00" from="E0D0" to="I4I3" via="F9E9 A1A0 D1D0 C2D2 B5B6 C6C7 D3E3 A1A0 H3H2 B9A9 D8D7 G9F9 F0E0 I1J1 H8I8 A8B8 I4I3 A5A6 A2A3 I9J9"  type="soulEV65"/>
    <trip id="54" depart="54.00" from="F7E7" to="F1E1" via="F6G6 G9H9 E2E1 B3B4 A2B2 D3D2 H8H7 G1G0 I1I2 I9J9 B1A1 I2J2 C5C6 F8E8 F2F1 E0D0 D2C2 D4E4 D4C4 B8B7"  type="soulEV65"/>
    <trip id="55" depart="55.00" from="B3B4" to="G2H2" via="F1E1 I8I7 D5D6 H1H2 I0H0 H9I9 C5B5 B6B5 C1C2 F9F8 H4H5 G4G5 B9A9 H5I5 E9D9 H4G4 H4H5 E5D5 J0I0 F6E6"  type="soulEV65"/>
    <trip id="56" depart="56.00" from="G1H1" to="H7H8" via="I4I5 G2F2 B6C6 A8A9 E4E5 D1D2 C8C7 A7A6 F0G0 D2C2 E5E4 A7A6 I1I2 A9B9 I4I5 I3I4 G1F1 F0G0 E6E5 F5E5"  type="soulEV65"/>
    <trip id="57" depart="57.00" from="I7I6" to="E1E2" via="E5D5 H9G9 G4G3 D3C3 E7E8 B6C6 A7B7 B2B3 I7I8 D5C5 H0H1 F0F1 B8C8 C6B6 E4D4 E4E3 F2F1 B7B8 D7E7 C9B9"  type="soulEV65"/>
    <trip id="58" depart="58.00" from="D4D5" to="D2C2" via="F9E9 H7H6 G4F4 A8A7 B1C1 G6H6 C9C8 H1H0 G4H4 I8I7 I5I4 D4D3 F7F8 B5C5 D5D6 J5J6 G8G9 D9E9 F8G8 J2I2"  type="soulEV65"/>
    <trip id="59" depart="59.00" from="D8C8" to="H5H6" via="H7H6 H9H8 G6F6 I1I0 H2H3 G7G6 F2F3 G3H3 E2F2 D6E6 D6E6 B9B8 C3B3 J3J2 E8E9 C4B4 B5B6 A9B9 I2I3 B2B1"  type="soulEV65"/>
    <trip id="60" depart="60.00" from="I1J1" to="D2C2" via="I6I5 A4B4 D4D5 H5G5 B5A5 D8C8 B7C7 I1I2 H5H6 H9G9 B8A8 E4D4 E1E2 G6G7 C5B5 E4E5 C9C8 H3H4 E5D5 F3F2"  type="soulEV65"/>
    <trip id="61" depart="61.00" from="H9G9" to="C9C8" via="E6F6 I1J1 D7D6 J3I3 J7J8 E6E5 C9B9 D8D9 F2F3 J5J4 I0H0 H8H7 B5B6 C6C5 G3G2 I5I4 F5E5 B2B1 I2J2 I3I2"  type="soulEV65"/>
    <trip id="62" depart="62.00" from="H4I4" to="C9D9" via="C8C7 I8H8 B6B7 E4D4 J3I3 C3C4 E5E4 D5D6 A3A4 A6B6 F0E0 C4D4 J9I9 D7E7 A3B3 J1J0 I2I1 G4F4 H7H6 B5B6"  type="soulEV65"/>
    <trip id="63" depart="63.00" from="I1I0" to="F8G8" via="G8G7 B5B6 G9F9 E5D5 A0B0 B0A0 C6D6 I1J1 F4F5 H1H2 F2F3 B3B2 C9D9 D1D0 A6A5 E2E3 H7H8 E5F5 B3A3 I8H8"  type="soulEV65"/>
    <trip id="64" depart="64.00" from="A2A1" to="A2A1" via="F1F2 C5C6 B6A6 E3E2 G1F1 C5C4 E2D2 G5G6 B0C0 J6J5 A8A9 F2F3 F0G0 J8I8 F5E5 D9D8 E7D7 G2H2 J7J6 C6C7"  type="soulEV65"/>
    <trip id="65" depart="65.00" from="H7G7" to="C1C2" via="D5D4 H2G2 G2G1 H5H6 H2H1 D4C4 A5A6 F4F3 H9H8 B9A9 H6H5 E6E7 G8G7 G2G3 H9H8 A7B7 H6G6 E5F5 D0D1 A5A6"  type="soulEV65"/>
    <trip id="66" depart="66.00" from="A5A6" to="J0I0" via="J1J2 F1F2 J8J7 F4E4 C6C7 H4G4 C0D0 D6D5 H6H7 I4I5 D4C4 B4B3 D7D6 I6J6 H3G3 I7I6 D9C9 J6J5 E9E8 E9F9"  type="soulEV65"/>
    <trip id="67" depart="67.00" from="F1G1" to="J3J2" via="H8H7 H1H2 B0A0 F9F8 I0J0 F4F3 D3C3 B0A0 G5F5 D1E1 F9F8 E3D3 G7H7 D5E5 A5A6 I5H5 D5E5 J9J8 C8C7 J7I7"  type="soulEV65"/>
    <trip id="68" depart="68.00" from="A9B9" to="F2G2" via="G3F3 D6E6 H8H7 G6H6 J4I4 B6A6 G0F0 H6H7 A4A5 A8A9 H6H5 D7C7 D8D9 F6F5 F9G9 G6H6 J3J2 D7D8 H4I4 F6G6"  type="soulEV65"/>
    <trip id="69" depart="69.00" from="E0E1" to="G7F7" via="G4F4 C6B6 B3B2 H2H1 E9F9 D9C9 F5G5 C7C6 C7B7 E4F4 J9I9 C9C8 I9H9 E8F8 B4B3 I3I4 E5E4 I7I8 E4F4 B1A1"  type="soulEV65"/>
    <trip id="70" depart="70.00" from="I2J2" to="G0H0" via="D3C3 D5D6 A8A7 F4E4 I6J6 I3I2 H0G0 J0J1 G3F3 H7H8 F1E1 B4A4 C1D1 B5B6 H7H6 A3A4 F5E5 D7D6 H8H9 F4G4"  type="soulEV65"/>
    <trip id="71" depart="71.00" from="B1A1" to="B4B3" via="D2C2 J9J8 H0I0 F2F3 H5H4 I0J0 A9A8 J6J5 G3G4 E5D5 G6H6 D5D4 I5J5 H6H5 G3G2 B9C9 J5J4 E3E4 I8I9 A6B6"  type="soulEV65"/>
    <trip id="72" depart="72.00" from="B7A7" to="I2I3" via="B8A8 D3D2 G9H9 D5D4 J2J1 I7I6 I2J2 C6C5 G2H2 F4G4 B4B5 D1D2 F3F2 F0E0 B8B7 J2J1 B7A7 G5F5 H1G1 F9G9"  type="soulEV65"/>
    <trip id="73" depart="73.00" from="F5G5" to="E8E7" via="I1H1 A3B3 A5B5 G3G2 F7E7 G4G3 H5H4 E2D2 G3G2 E9F9 G2F2 D0C0 J4J3 E8D8 H8H9 G7G6 D1C1 A9A8 A7A8 E4E3"  type="soulEV65"/>
    <trip id="74" depart="74.00" from="C2B2" to="D3D4" via="G0F0 D2D1 H0I0 H2H1 I4H4 J6J7 B5A5 D7D8 F5G5 D2E2 E6E7 C7D7 C6B6 B1C1 D0C0 D8E8 G1F1 C6B6 I4I5 B7B8"  type="soulEV65"/>
    <trip id="75" depart="75.00" from="F7E7" to="I6H6" via="D2D1 H4I4 E9F9 F1F2 E9F9 D2C2 A3A2 J3I3 F0F1 J5J6 C3B3 D6C6 A6A7 E9E8 I6H6 G4G5 E7D7 F3F4 I2J2 E3E4"  type="soulEV65"/>
    <trip id="76" depart="76.00" from="H1H2" to="F1E1" via="H4I4 D7C7 E0F0 F6F7 C1C0 F5E5 A9A8 F0F1 H5G5 C8D8 J8J7 G6H6 B3C3 J6J7 D9E9 H7I7 D4E4 J2J1 H4G4 C1C2"  type="soulEV65"/>
    <trip id="77" depart="77.00" from="F0E0" to="G6G5" via="A5B5 B5B6 D4C4 E7E6 E5F5 G0F0 F1F2 D3E3 G0H0 B7C7 J8J7 H2I2 D1C1 D4D5 I1I0 F3E3 G9H9 D1C1 H9I9 D7D6"  type="soulEV65"/>
    <trip id="78" depart="78.00" from="J7I7" to="B3A3" via="F7G7 H7I7 H1H2 G7G8 A3A4 E7E6 J5J6 H6H7 H6G6 F7E7 H1G1 F7G7 B8B9 G2G1 G1G2 I2I1 B6B7 G7F7 A4A3 J3J2"  type="soulEV65"/>
    <trip id="79" depart="79.00" from="A2A3" to="H1G1" via="D2D1 B6C6 G7H7 E1E2 H5I5 I9J9 I5I4 H2H1 A7B7 B5B6 C2C1 D3D4 G5G4 F2F3 D2D1 B8C8 I8J8 D5C5 D6C6 H5H6"  type="soulEV65"/>
    <trip id="80" depart="80.00" from="G3G4" to="I0H0" via="G8F8 G0G1 C1B1 C5D5 F5F4 C3D3 J6J5 D1C1 D0C0 C2C1 G9F9 D2E2 D5D6 J1J2 H7I7 C8C7 B4A4 G6G7 D8D7 J7I7"  type="soulEV65"/>
    <trip id="81" depart="81.00" from="J4I4" to="E1F1" via="H8H9 D0C0 C9D9 H0H1 D5D4 E4E5 C6D6 E7F7 C1D1 F3F4 J1J0 G8G7 B5B6 G1F1 F8E8 C5C6 G6F6 F3E3 G3F3 A6A7"  type="soulEV65"/>
    <trip id="82" depart="82.00" from="H0I0" to="B9A9" via="B2B1 H5H6 A0B0 F4G4 J1I1 E1E0 J1J2 I5J5 E7E8 C1C2 J5J4 D3C3 G3H3 I8I7 B1B0 F6G6 F3F2 H1H0 J2I2 I8J8"  type="soulEV65"/>
    <trip id="83" depart="83.00" from="I6H6" to="C1B1" via="B9A9 I9J9 J9I9 E0D0 E9E8 J2I2 J5I5 J0J1 I5I6 A1A2 F6F5 B2C2 J7J6 C9C8 J8J7 F4E4 E9D9 J2I2 I3I2 E6F6"  type="soulEV65"/>
    <trip id="84" depart="84.00" from="B3B2" to="C4D4" via="B7C7 E6D6 C6D6 C0C1 H2H3 H7H6 F6F5 H4H3 B9A9 I3J3 I7I6 I1H1 F1F2 B1A1 G5H5 C0B0 B5C5 D3D2 C6B6 C7B7"  type="soulEV65"/>
    <trip id="85" depart="85.00" from="H4G4" to="B7A7" via="J4I4 D1D0 H1H0 A1B1 G4G5 G8F8 A7B7 B3C3 D1E1 E1D1 F0E0 I7I6 G9F9 D2C2 B3C3 I9H9 D0E0 G1F1 C3C2 B5B4"  type="soulEV65"/>
    <trip id="86" depart="86.00" from="H3H4" to="D3E3" via="G0F0 E2D2 F4F5 E7D7 F3F4 G5G6 C3C2 C6B6 H4G4 I5I4 B0B1 E4F4 G9F9 B0A0 F6E6 A7B7 F4F5 F0F1 F6G6 B6B7"  type="soulEV65"/>
    <trip id="87" depart="87.00" from="F2E2" to="J8J9" via="B3B4 C2B2 F7F8 B1B0 F1E1 H9G9 E5E6 F1F0 E5F5 A7A6 E6E5 H8I8 H1H0 E0D0 H9I9 H3H2 F7F6 A5B5 D5D4 A7B7"  type="soulEV65"/>
    <trip id="88" depart="88.00" from="J1J2" to="F3F4" via="A8A9 J1J2 A4A3 E1E2 H5H4 H5G5 J7I7 G3H3 E2E3 J8J9 D8D9 I5H5 I8I7 D8C8 G7F7 G5G4 F3G3 G4G5 D5D6 B9B8"  type="soulEV65"/>
    <trip id="89" depart="89.00" from="F2G2" to="C2C1" via="H1I1 C3D3 A0B0 A3A2 D1C1 G6G5 F4F3 F3E3 I0J0 C6B6 D5D4 C8C9 J2I2 H1H2 B3B2 H9G9 E2E1 H5G5 I6I5 A2A1"  type="soulEV65"/>
    <trip id="90" depart="90.00" from="B2B1" to="G5F5" via="A4A5 F9E9 G9F9 A6A5 H2I2 E0F0 C4D4 C3C2 I4I3 A7A6 F0F1 D0C0 H9I9 H2G2 D2E2 F9E9 G6G5 D3C3 D1D0 B6A6"  type="soulEV65"/>
    <trip id="91" depart="91.00" from="C3C4" to="G9G8" via="D1D0 A7A8 J3J2 I5J5 I8J8 G2F2 E3D3 E9E8 J6J5 J2J1 G6F6 H6I6 D2E2 E2D2 B6B7 D8C8 H4G4 E7E6 I3H3 D1D0"  type="soulEV65"/>
    <trip id="92" depart="92.00" from="H8I8" to="F5F6" via="I9H9 F5G5 J5J6 F5F4 B5B4 C5C6 C2B2 G3H3 J0I0 I2J2 B1B2 H1H0 C0D0 C7D7 G6G5 F9G9 I5I4 C0C1 H4I4 H1H0"  type="soulEV65"/>
    <trip id="93" depart="93.00" from="E7F7" to="E9F9" via="I5H5 D4C4 J4J3 A2A1 J2I2 J5I5 B3C3 J9J8 E7F7 C5C6 F9G9 C2B2 I9H9 F4G4 H6G6 D8D9 F3F2 D6D7 C7C6 F1F0"  type="soulEV65"/>
    <trip id="94" depart="94.00" from="B2A2" to="C6D6" via="J7J6 E7D7 I2I1 I9H9 D7D8 E2D2 F5G5 C3C4 B6B5 C7B7 J1J2 F7F6 E2E1 B6C6 D3E3 D8D7 I1J1 E9F9 G4G5 G7G6"  type="soulEV65"/>
    <trip id="95" depart="95.00" from="I0I1" to="G9G8" via="J5J4 G3G4 E8F8 B8B7 H7I7 B8B7 H1G1 E8E9 I9I8 F4E4 G3G4 A7A8 A4A5 I2J2 J3I3 G5H5 H5G5 E1F1 I2I3 C4C5"  type="soulEV65"/>
    <trip id="96" depart="96.00" from="A1A2" to="B6B7" via="F0G0 D7E7 G1G0 G5H5 G1F1 E8D8 E8E9 A1A0 F4G4 A1B1 F2G2 C8C7 J6J7 A2A3 H9H8 G6G5 H8I8 I8I9 B2C2 B1C1"  type="soulEV65"/>
    <trip id="97" depart="97.00" from="C1B1" to="E9F9" via="F2F3 H9I9 C7D7 E0D0 D7E7 E1E0 F6E6 J8J7 C4B4 G7G6 I3H3 G4G5 I3J3 H4H5 B1B2 D8D7 F4G4 A7A6 A1A2 B8B9"  type="soulEV65"/>
    <trip id="98" depart="98.00" from="E3F3" to="H3I3" via="H6I6 F6E6 I3J3 B1C1 F2G2 A5A6 C2D2 I4J4 I6I7 E7E8 A5B5 A9A8 J0J1 I7I8 F5G5 A4A3 J1I1 D2D3 J5I5 F8E8"  type="soulEV65"/>
    <trip id="99" depart="99.00" from="H0G0" to="E0D0" via="E0E1 A9B9 B7C7 C5C4 I1J1 D9D8 I7I6 D4C4 H4H3 B5C5 J8I8 H1H0 F0E0 J6J5 A6B6 E4D4 I2H2 D4E4 H5H4 J4I4"  type="soulEV65"/>
    <trip id="100" depart="100.00" from="H5I5" to="A0B0" via="A3B3 C8C7 J8J9 E8F8 D6D5 J2J1 E3E4 G6H6 G5F5 B0C0 G1G0 H8G8 H0G0 B0B1 B7A7 H0G0 G2H2 H2I2 D2E2 B2C2"  type="soulEV65"/>
    <trip id="101" depart="101.00" from="D1E1" to="B8B9" via="D6D7 C8B8 B5A5 C0C1 E5D5 F5E5 E1E0 A3A4 D6C6 B1B2 F9E9 D3D2 D8E8 D0D1 D9C9 B0C0 I7J7 I8H8 J7I7 F6F7"  type="soulEV65"/>
    <trip id="102" depart="102.00" from="D8D9" to="D4D3" via="B5B6 D1D0 E9D9 A7B7 E3F3 E2E3 E8E7 A9B9 C6C5 C5D5 G2F2 F8F9 C1C0 B2C2 D1D2 J3J2 D4C4 G1G2 H8H9 D3E3"  type="soulEV65"/>
    <trip id="103" depart="103.00" from="H9I9" to="F4F3" via="I4H4 J6J5 B5B6 D3C3 J3J2 C1D1 D2D3 J5J4 J5J6 D0C0 G8G7 E8F8 F7E7 C5C6 D8C8 H9I9 D9E9 B3B2 F5G5 F8F9"  type="soulEV65"/>
    <trip id="104" depart="104.00" from="G7F7" to="F0G0" via="F4G4 J4I4 E6E5 G9H9 E4D4 D0C0 G8F8 I0H0 H7I7 E1E2 E9F9 G2H2 C5C6 G5F5 H0H1 H7H6 A9A8 J8J7 E7F7 E0F0"  type="soulEV65"/>
    <trip id="105" depart="105.00" from="I9J9" to="C7B7" via="G8F8 F4E4 H7H6 D6D7 I7I6 F3F4 G3F3 B0C0 H5H4 G4H4 D6C6 G3H3 A5A6 J7J8 G6G7 E0E1 H3I3 J5J4 E3E2 A1A2"  type="soulEV65"/>
    <trip id="106" depart="106.00" from="F1E1" to="E7E8" via="F1G1 F7F6 F7E7 E4F4 D9D8 H5I5 F8E8 F0E0 D5D4 A3A2 B2B3 E2D2 J5I5 B3B4 J2J1 B6A6 D2D1 E5E6 C2C1 E8D8"  type="soulEV65"/>
    <trip id="107" depart="107.00" from="E4D4" to="A3B3" via="G8G7 D2E2 D1D0 H9G9 B3B4 I3H3 G4F4 G6G7 B8A8 J7J8 C5C6 B8C8 B7B8 F5F6 J4J5 C4C5 E1D1 C0B0 G3G2 E3E4"  type="soulEV65"/>
    <trip id="108" depart="108.00" from="G1F1" to="D5D6" via="C1C2 F8F9 D9C9 G9F9 C2C1 H3I3 H9G9 A7B7 B2B1 I5H5 C0C1 D3D4 E5F5 C7C6 I4I3 F2F3 G3G2 F8G8 G0H0 F8E8"  type="soulEV65"/>
    <trip id="109" depart="109.00" from="I2J2" to="F5E5" via="G1G0 H9H8 G9G8 D1C1 G1F1 B0C0 B5B4 B3C3 D1D2 B9C9 G8F8 F1E1 E2E1 B5B6 D8E8 C0B0 G2H2 G8F8 G3H3 J9J8"  type="soulEV65"/>
    <trip id="110" depart="110.00" from="E8F8" to="F3F4" via="B5C5 D2D3 E5E4 A6B6 D6D7 A1A2 B5B6 H9I9 J5I5 F0F1 E9E8 G7G6 E2D2 I2I1 E8E9 B0B1 A4A3 H4H5 D0D1 C8C7"  type="soulEV65"/>
    <trip id="111" depart="111.00" from="B8B7" to="D5D6" via="E5F5 H3G3 H5G5 F4F5 B3B2 B3B4 H6G6 I0J0 D7D6 I0J0 A5A4 H0I0 F4F3 J8J7 B2B1 I1I0 H3I3 D1C1 J9J8 E5D5"  type="soulEV65"/>
    <trip id="112" depart="112.00" from="I0H0" to="C7D7" via="E4E3 J8J9 H6G6 C5B5 H9G9 F8E8 D5E5 G9H9 G2G3 B8A8 B5C5 C2C1 C2C1 A7A8 D5E5 C9B9 F3F4 D3D2 G9F9 D0C0"  type="soulEV65"/>
    <trip id="113" depart="113.00" from="I3J3" to="G2H2" via="J7J8 G6H6 B1C1 J5I5 H6I6 I9I8 J8J9 I4J4 B4B5 I4I5 C6B6 H0G0 I1I0 H4I4 G6G7 E8F8 F7E7 C7D7 E2D2 E5E4"  type="soulEV65"/>
    <trip id="114" depart="114.00" from="I5J5" to="I1I0" via="B1B2 F1F2 C8D8 J2I2 D7D6 J3J4 D3D4 A0A1 H5I5 H2G2 H2G2 E6D6 G5G6 D6D5 A7B7 F3F2 C3C2 E3E2 C2D2 C7D7"  type="soulEV65"/>
    <trip id="115" depart="115.00" from="D4D5" to="C8C7" via="F7F6 F6E6 E8E7 D5C5 G7F7 A6A5 B2A2 H6I6 E6D6 B4B3 I3J3 E4E3 A0A1 J4J3 C1D1 G7G8 B5A5 G4F4 B7B8 J1J0"  type="soulEV65"/>
    <trip id="116" depart="116.00" from="G4G5" to="B5A5" via="C6C5 D7D8 I8H8 B8A8 E0D0 D1D2 G8G9 C4D4 G4G5 G9F9 A0A1 E7E8 B5A5 C4B4 G6H6 A1A2 G8G7 I0H0 J8I8 E2F2"  type="soulEV65"/>
    <trip id="117" depart="117.00" from="A8B8" to="I4H4" via="D8D9 H2G2 B2B1 D2D1 I6H6 B5B6 H5I5 H4G4 B5A5 J8J9 B6A6 F2G2 A1A2 G4G3 E4E3 H1H0 G2G1 B6C6 E1F1 G7G8"  type="soulEV65"/>
    <trip id="118" depart="118.00" from="B1A1" to="D0E0" via="B2B1 H3I3 F8F7 D8E8 J5I5 D2D3 B5C5 C8C9 B0C0 F5E5 F9F8 G0F0 H6H5 G7H7 I3H3 G5F5 D1D0 F1G1 F1E1 H3H4"  type="soulEV65"/>
    <trip id="119" depart="119.00" from="A6B6" to="C7C6" via="I7I8 J4I4 E9E8 B3B2 E9F9 F8F9 F2G2 J6J7 J8I8 J1J2 B5A5 I4H4 F6F5 D7C7 G7F7 H4I4 J4I4 H5H6 A2A3 A8A9"  type="soulEV65"/>
    <trip id="120" depart="120.00" from="A5A4" to="A8A7" via="A7A8 H7H6 F0G0 G2G1 F0E0 E2D2 G8H8 B0B1 F3F4 G1F1 C8C9 D2C2 F1F0 C2B2 H8I8 F3F4 D9D8 G2H2 I1J1 G7F7"  type="soulEV65"/>
    <trip id="121" depart="121.00" from="G8G9" to="H6H7" via="H1I1 I2J2 A7A6 B1A1 E3F3 E5E6 G0G1 D2C2 H3G3 H2I2 B3C3 G9G8 G8H8 B7C7 J4I4 F2F1 H6H7 H1G1 B8B7 B4B5"  type="soulEV65"/>
    <trip id="122" depart="122.00" from="C7D7" to="A5A6" via="I6I7 H5H6 A3B3 H8I8 C8B8 A7B7 H0G0 F7E7 A9B9 E5E6 D6D7 E9F9 F6F5 D7D6 C6C7 B2B3 F6G6 H1H0 C4C3 F1E1"  type="soulEV65"/>
    <trip id="123" depart="123.00" from="I4I3" to="J7J6" via="C5D5 E7D7 D8D9 B6C6 J1J0 I3J3 F5E5 I9H9 H2I2 E2E1 D3C3 E2D2 H1G1 C8B8 B0A0 D7E7 F0E0 I7J7 B9B8 H8H9"  type="soulEV65"/>
    <trip id="124" depart="124.00" from="J4I4" to="E1E2" via="A8A9 E6E7 C9B9 I2J2 D3D4 F5E5 A1A0 C1D1 F5G5 D1D2 G1H1 E6E7 F8F9 E9D9 H5I5 C1C0 I7J7 H4H5 C5D5 A1A0"  type="soulEV65"/>
    <trip id="125" depart="125.00" from="C4C5" to="D7E7" via="D5D4 I2I1 I5I6 J3J4 A0A1 G4H4 I3H3 H1H2 B2B3 F2G2 C5B5 E9D9 A7A8 J9I9 H0G0 B1B2 I9J9 I7I8 F2E2 G8H8"  type="soulEV65"/>
    <trip id="126" depart="126.00" from="J6J5" to="B7A7" via="B0C0 B1C1 B5B4 I0I1 A9A8 F6F5 E3F3 J5J4 C5B5 C7B7 D2D3 H8H7 G8H8 H2H1 D2E2 C8B8 A9A8 C1D1 H6H5 F7G7"  type="soulEV65"/>
    <trip id="127" depart="127.00" from="B8A8" to="C7B7" via="E6E7 E1E0 F3F2 J5J4 C2C1 D1E1 C7C8 B4A4 B7B6 G7G6 I1H1 G8G7 A5A4 I1J1 D3E3 B1B0 C6B6 D6D5 F1F0 G6G7"  type="soulEV65"/>
    <trip id="128" depart="128.00" from="J8J7" to="A8A7" via="A4A3 E1D1 E5E4 H3H4 C6B6 E6E5 H8H9 B5C5 A1B1 I1I0 J7J6 B5A5 I0J0 D7E7 G2G1 G3H3 F7F8 C7B7 H9H8 A2B2"  type="soulEV65"/>
    <trip id="129" depart="129.00" from="I7J7" to="C5D5" via="E4E5 B4C4 I8H8 I1I0 D4C4 A5A6 E6D6 B8B7 F6G6 I0I1 E0D0 A3B3 G7F7 B8C8 C3B3 C0C1 C8D8 I6I5 A4A5 G1G0"  type="soulEV65"/>
    <trip id="130" depart="130.00" from="D0E0" to="D2E2" via="E1F1 F4G4 A7A8 C8D8 B5B6 C1C2 I6I5 F2F3 G2G3 H8H7 H7I7 J8J7 H6H7 D6D7 F4F3 E8E7 I8J8 F0E0 D9C9 B9B8"  type="soulEV65"/>
    <trip id="131" depart="131.00" from="C3C2" to="I2J2" via="I7I6 H6H5 A7A8 J8J7 F2G2 H5H4 J9J8 J6J5 B2B1 G4H4 C7C8 H9I9 I9I8 A7A6 J9I9 C3C2 I2J2 H8G8 D6C6 I2I1"  type="soulEV65"/>
    <trip id="132" depart="132.00" from="B9A9" to="I9I8" via="F8F9 H8I8 G8G9 I9H9 A3B3 G8H8 J3J2 F5G5 F5G5 C0C1 J8I8 I6H6 E9D9 D2C2 E8F8 B1B0 C4C5 C3C2 F2F3 A0A1"  type="soulEV65"/>
    <trip id="133" depart="133.00" from="C1D1" to="H7H8" via="B4C4 H0I0 I9I8 I2I3 D3D2 A2B2 F8E8 I9I8 H5I5 I2J2 I4H4 J4J5 D7E7 J2J3 E0D0 B2B1 D1D0 B5B6 B7B6 J3J2"  type="soulEV65"/>
    <trip id="134" depart="134.00" from="J4J5" to="I9J9" via="G4F4 B8C8 J5J6 G8F8 J1I1 H7G7 C3D3 F8F7 B9A9 D1E1 G7G8 B4B5 H1I1 J3J2 J3J2 D9D8 J8J9 J5J4 A4A3 F9F8"  type="soulEV65"/>
    <trip id="135" depart="135.00" from="J5J6" to="D8E8" via="C3C4 F6E6 J2I2 B5C5 H3H2 C5B5 J7J6 B8B7 I6I5 B1A1 G9H9 G3G2 I6I7 E4F4 C7C8 C6B6 A8A9 C6D6 B2C2 A0A1"  type="soulEV65"/>
    <trip id="136" depart="136.00" from="H2G2" to="F4F3" via="J5J6 I6I5 E9D9 D8D7 F4F3 B2B1 E7F7 I4I5 G4G3 G7G8 B7C7 A9A8 I2J2 D0E0 D2E2 J3J4 A9A8 B8B9 D8C8 H2G2"  type="soulEV65"/>
    <trip id="137" depart="137.00" from="I7I8" to="I2I1" via="B1B2 F8F9 G0H0 E8D8 A4A3 J2J3 B8A8 I6J6 B7B6 B2B1 C2B2 C0D0 G8G7 H1G1 H1I1 C7C8 C9B9 C5B5 A6A5 F6F7"  type="soulEV65"/>
    <trip id="138" depart="138.00" from="B7A7" to="E4F4" via="D6D7 E3D3 D0E0 G5G4 F9F8 C1C2 A3A4 B8B9 D0D1 B0B1 I2I3 D2C2 E0E1 E8F8 G5F5 B1B0 F4E4 C0B0 I6I5 D7D6"  type="soulEV65"/>
    <trip id="139" depart="139.00" from="C7C6" to="B0A0" via="E6E7 C4B4 C7D7 A7B7 H3I3 G5H5 B0C0 D5C5 F3G3 J6I6 F8F7 F5E5 I2I1 I0H0 E2E1 F3F2 I4J4 E7E6 I6H6 E7E8"  type="soulEV65"/>
    <trip id="140" depart="140.00" from="I7J7" to="I8I9" via="H0H1 F0E0 I7J7 H8H7 G6G7 G1G2 B4A4 H4H3 B8C8 J7J8 J6I6 H9G9 B4B5 E2F2 J8I8 E3F3 J9J8 G2F2 I1J1 C6D6"  type="soulEV65"/>
    <trip id="141" depart="141.00" from="I9H9" to="F3F2" via="A8A9 D9C9 E0E1 D3D4 C8C9 E5F5 I5I4 H7G7 G1H1 F2F1 E2E3 E2D2 B6B7 F8E8 H4H5 J2J1 J0I0 F5G5 B2B1 C9C8"  type="soulEV65"/>
    <trip id="142" depart="142.00" from="D5C5" to="E8F8" via="E1E2 D8D9 E8E7 G0G1 A4B4 C8C9 B6A6 G0G1 G8F8 A4B4 I6J6 D4C4 C5B5 H3H2 I9J9 I7I6 A2B2 I0H0 D1D2 C8D8"  type="soulEV65"/>
    <trip id="143" depart="143.00" from="G8G7" to="B5B4" via="B2A2 I4J4 B5B4 J6J5 E4E5 I1H1 C7D7 E2E1 G3H3 C0C1 C2D2 I0J0 H2I2 H4H5 I4J4 I0I1 F1F2 B7B8 D2D1 F0G0"  type="soulEV65"/>
    <trip id="144" depart="144.00" from="I3I2" to="D5D6" via="I5J5 A3B3 C1B1 I1I2 I2H2 C6B6 E5F5 I9I8 G9F9 C8C7 I0J0 F0F1 G2H2 B4B3 A4A3 D7E7 F8F9 B9A9 I5H5 F8E8"  type="soulEV65"/>
    <trip id="145" depart="145.00" from="B7C7" to="A1A2" via="I7I6 H3H4 G7G8 C9C8 D9C9 B7C7 F6G6 J5J4 I3J3 G4F4 G6G7 C7D7 E1E2 A2B2 H6H5 H5H4 A1A2 I8J8 G4F4 F9F8"  type="soulEV65"/>
    <trip id="146" depart="146.00" from="C6C5" to="B2C2" via="H8H9 D1D2 J5J6 G3G4 E2F2 D8C8 D5D6 C6C5 E6F6 G6G7 I0J0 E0D0 B2B1 F1F0 G5G4 I2I3 D7E7 G4F4 G0G1 D1C1"  type="soulEV65"/>
    <trip id="147" depart="147.00" from="A7B7" to="D9C9" via="J8I8 G3G2 I4I3 C7C6 G9H9 I7H7 D1C1 B6B7 H5G5 I7I8 H8H9 H8H7 F9F8 G5F5 G7F7 H1G1 G4G5 J9J8 C7B7 E2E1"  type="soulEV65"/>
    <trip id="148" depart="148.00" from="A4A5" to="G6H6" via="G9G8 F6F7 C0D0 H1H2 C3D3 F3F2 H6I6 I8I7 G6F6 F0G0 I2J2 I2I1 I5I6 B9C9 B2A2 B4C4 C7B7 H9G9 H4I4 B9C9"  type="soulEV65"/>
    <trip id="149" depart="149.00" from="D4D3" to="I3I4" via="B1B0 D6C6 H3G3 D1E1 H7G7 D4C4 C7B7 D0D1 I3I2 E7D7 I4I5 F7G7 J2J3 A8B8 I6J6 F0E0 I4J4 D8D9 D1C1 A6B6"  type="soulEV65"/>
    <trip id="150" depart="150.00" from="B5B6" to="G1F1" via="C1D1 E1E2 F6F5 I8I7 E5F5 D2D3 H0H1 H6H5 E8E9 G2G3 B9A9 G2H2 A0B0 C8C7 H4I4 B8B7 H5G5 E8F8 H4I4 B1A1"  type="soulEV65"/>
    <trip id="151" depart="151.00" from="G2H2" to="D1C1" via="E1D1 J5J4 D8D9 A4B4 C1C2 D7E7 A2A1 D3C3 I1I2 C0D0 G6G7 G2F2 C6B6 G8F8 D5C5 B4C4 D8E8 F8E8 B8B7 I0J0"  type="soulEV65"/>
    <trip id="152" depart="152.00" from="D0C0" to="A4B4" via="H1I1 F8G8 D4D5 I6I7 J9I9 D5C5 I7J7 D6D7 C0C1 J3J2 I9I8 E1D1 C4C3 H1H2 B5A5 H2H1 F8F7 B8B7 D7C7 G4G3"  type="soulEV65"/>
    <trip id="153" depart="153.00" from="I5I6" to="B5B6" via="C6D6 F3F2 A6A5 J9I9 G5G4 G4G5 A2B2 G7H7 E2E1 D8D7 F4F5 E7E6 B7A7 G8G7 G2G1 D1D0 G5G4 G5G4 C8B8 G0F0"  type="soulEV65"/>
    <trip id="154" depart="154.00" from="I1I2" to="I1J1" via="B2B3 H0I0 B3C3 B3B4 B2C2 C1C2 C1C2 C7C6 F2F1 C1D1 G9F9 D0E0 A5A4 E9E8 C2C1 J1J0 D4C4 A0A1 G6F6 I8I7"  type="soulEV65"/>
    <trip id="155" depart="155.00" from="G5H5" to="I3I2" via="B6B7 B1B0 F1F0 H1H0 B2B1 C6D6 C4C5 J8I8 D0E0 E6E7 B2A2 B8C8 A5A4 D0C0 H8H7 D2D1 H2H3 B1C1 H4H3 A5B5"  type="soulEV65"/>
    <trip id="156" depart="156.00" from="G5G4" to="B7B8" via="B8B9 D6D5 E4D4 G1G2 I5J5 B1B2 H9I9 B9C9 E0F0 J5I5 C8B8 D8E8 I3I2 H8G8 G4F4 H7I7 B3B2 G8G7 A7A8 J2J3"  type="soulEV65"/>
    <trip id="157" depart="157.00" from="E2D2" to="F7E7" via="F8F7 H8H7 G6H6 B9C9 D8D7 D6D7 A3B3 G7G6 I2H2 J6J5 B5A5 I9J9 B3B2 E1F1 A5B5 C7C6 D2D3 G9F9 G6H6 H5H4"  type="soulEV65"/>
    <trip id="158" depart="158.00" from="F6E6" to="A9A8" via="J7I7 G6F6 D4D5 F2F1 G8H8 B1C1 G5G4 C6B6 D5D4 G6G7 D8E8 I2I1 F5F6 J8I8 A6B6 G3G4 B7B6 I3H3 I3I2 I4J4"  type="soulEV65"/>
    <trip id="159" depart="159.00" from="E8F8" to="F9G9" via="C5C4 J6I6 A6A7 C3D3 G3G4 E1D1 C4D4 E6D6 H8H7 E5D5 I3J3 E4F4 B3C3 E9F9 G4G5 B2B1 E1F1 F5F4 A0A1 B1B0"  type="soulEV65"/>
    <trip id="160" depart="160.00" from="G1G0" to="D0D1" via="D1D2 F1E1 C2C1 G6F6 J3J4 D6E6 A6B6 C3D3 E5E6 F5F6 G1G2 E7E6 G4H4 H0H1 B3B4 H4H5 C3C4 D4E4 I1I0 J5J4"  type="soulEV65"/>
    <trip id="161" depart="161.00" from="F2E2" to="E5E4" via="G8H8 A5B5 B8A8 B5C5 H0I0 H1G1 B2C2 G0G1 C0C1 J1I1 D9E9 E5F5 H6H7 H0I0 B2C2 E2D2 J0J1 I2H2 F8E8 H5H6"  type="soulEV65"/>
    <trip id="162" depart="162.00" from="G5F5" to="I9H9" via="J4J3 B5B4 E9F9 F2G2 A6A5 J1J2 I2H2 E8D8 F0G0 I9J9 B9A9 F7F6 H1I1 B4C4 D9C9 F9F8 I6H6 F0F1 D8E8 J7I7"  type="soulEV65"/>