<?xml version="1.0" encoding="UTF-8"?>
<additional xmlns:xsi="http://www.w3.org/2001/XMLSchema-instance" xsi:noNamespaceSchemaLocation="http://sumo.dlr.de/xsd/additional_file.xsd">
 
    <chargingStation id="cs_0" lane="chargeHub_0" startPos="0.00" endPos="10.00"/>
    <chargingStation id="cs_1" lane="-E9_0" startPos="0.00" endPos="10.00"/>
    <chargingStation id="cs_2" lane="-E12_0" startPos="0.00" endPos="10.00"/>
    <chargingStation id="cs_3" lane="-E11_0" startPos="0.00" endPos="10.00"/>
 
    <vType id="soulEV65" minGap="2.50" maxSpeed="29.06" color="white" accel="1.0" decel="1.0" sigma="0.0" personCapacity="4" containerCapacity="4" loadingDuration="10" emissionClass="Energy/unknown">
        <param key="has.battery.device" value="true"/>
        <param key="airDragCoefficient" value="0.35"/>       <!-- https://www.evspecifications.com/en/model/e94fa0 -->
        <param key="constantPowerIntake" value="100"/>       <!-- observed summer levels -->
        <param key="frontSurfaceArea" value="2.6"/>          <!-- computed (ht-clearance) * width -->
        <param key="internalMomentOfInertia" value="0.01"/>  <!-- guesstimate -->
        <param key="maximumBatteryCapacity" value="64000"/>
        <param key="actualBatteryCapacity" value="32200"/>
        <!--  for sumo v1.19 onwards
        <param key="device.battery.capacity" value="64000"/>
        <param key="device.battery.chargeLevel" value="32200"/>
        -->
        <param key="maximumPower" value="150000"/>           <!-- website as above -->
        <param key="propulsionEfficiency" value=".98"/>      <!-- guesstimate value providing closest match to observed -->
        <param key="radialDragCoefficient" value="0.1"/>     <!-- as above -->
        <param key="recuperationEfficiency" value=".96"/>    <!-- as above -->
        <param key="rollDragCoefficient" value="0.01"/>      <!-- as above -->
        <param key="stoppingThreshold" value="0.1"/>         <!-- as above -->
        <param key="vehicleMass" value="1830"/>              <!-- 1682kg curb wt + average 2 passengers / bags -->
    </vType>
    
    <route id="clockwise" edges="E0 E1 E2 E3 E4 E5 E11 -E11 E6 E7 E8 E0"/>
    <route id="aclockwise" edges="-E8 -E7 -E6 -E5 -E4 -E3 E9 -E9 -E2 -E1 -E0 -E8"/>

    <rerouter id="rerouter" edges="E0">
        <interval begin="0" end="15000">
            <routeProbReroute id="clockwise"/>
        </interval>
    </rerouter>
    <rerouter id="rerouter_a" edges="-E8">
        <interval begin="0" end="15000">
            <routeProbReroute id="aclockwise"/>
        </interval>
    </rerouter>

</additional>    
